
* L-Edit Models
*

.MODEL PMOS1 PMOS
.MODEL NMOS1 NMOS
.MODEL NPN1 NPN
.MODEL PNP1 PNP
.MODEL DIODE1 D

.END
